// -*- C++ -*-
// File generated by PyFoam - sorry for the ugliness

FoamFile
{
 class scalarList;
 format ascii;
 location constant;
 object deltaL;
 version 2.0;
}

26676
(
  nan
  nan
  nan
  nan
  nan
  nan
  nan
  nan
  nan
  nan
  nan
  nan
  nan
  nan
  nan
  nan
  nan
  nan
  nan
  nan
  nan
  nan
  nan
  nan
  nan
  nan
  0.0003230614384795509
  0.00036325944894261073
  nan
  nan
  nan
  nan
  nan
  nan
  nan
  nan
  nan
  nan
  nan
  0.00026833463816647285
  0.0002942058323457662
  0.00030498061188133867
  0.0003430251068424231
  0.00039603318174154906
  nan
  nan
  nan
  nan
  nan
  nan
  nan
  nan
  0.00025633886355677616
  0.00026596971575156795
  0.0002826705874609326
  0.00030254211100898986
  0.0003237971370197064
  0.00035362055477962124
  nan
  nan
  nan
  nan
  nan
  nan
  nan
  0.00025331892205538483
  0.000259401256335604
  0.00026873969531278976
  0.00027796868130742537
  0.0002926159844738427
  0.00032435249070401163
  0.00034661176254638723
  0.0003846746006732385
  nan
  nan
  nan
  nan
  nan
  0.0002533966883344852
  0.0002594847641331824
  0.0002647251022416622
  0.00027674966177473724
  0.0002868117735728328
  0.0003059798808516468
  0.0003183004593192861
  0.0003530668585828037
  0.00038349860225059875
  nan
  nan
  nan
  nan
  0.0002564008043293355
  0.000261722073116368
  0.0002687564770611597
  0.00026886115304717363
  0.00028446487196184513
  0.0002988014091758041
  0.0003053606693856328
  0.0003222043570286695
  0.0003415429880826122
  0.0004172246618148989
  nan
  nan
  nan
  0.0002601924913208074
  0.00026483009710868624
  0.00027121361828893916
  0.00027734229149469007
  0.00028407049624887097
  0.00029323433891190653
  0.00031602877288990685
  0.000305884657008104
  0.0003540848454893499
  0.00036972108659040677
  nan
  nan
  nan
  0.0002635446711041142
  0.0002679934050763109
  0.0002738551276744543
  0.00027776209170019277
  0.00028958792021752653
  0.0002926274106653902
  0.0003071361493870875
  0.0002962793766480883
  0.00032732872904162296
  0.00036251374199581306
  0.0004377848412819487
  nan
  nan
  0.00026614100510717706
  0.0002704609693737294
  0.0002754880426333226
  0.00027952617546461695
  0.00027857848838837204
  0.0002860036812645611
  0.00030602887725803126
  0.0003260780397429594
  0.00034687291600556716
  0.0003820849712447721
  0.0004392592345047688
  nan
  nan
  0.0002674884793276309
  0.00026975922617471904
  0.00027694138387274295
  0.00027806077667155883
  0.00027991350307127676
  0.00029048887853181597
  0.0003056989517764821
  0.0003187483851760062
  0.00034265198968990026
  0.0003780116800289126
  0.0004324008764738125
  nan
  nan
  0.0002654546877188099
  0.00026897706191204537
  0.0002674249329887528
  0.0002668421342190911
  0.0002751473601325298
  0.00029285997047977247
  0.0003064682077484111
  0.00031812338515510433
  0.000342278604536467
  0.00037566327095838196
  0.000409694589512252
  nan
  nan
  0.0002571516616392989
  0.00026911543202487047
  0.00026379588044551596
  0.0002693809080912794
  0.00027676874918411036
  0.00025826284377479416
  0.0003025461973375162
  0.0003209141632904211
  0.0003434931278783258
  0.00037817758232343426
  0.0004107284154422131
  nan
  nan
  0.0002599481358187487
  0.00026317094761722077
  0.0002658784290025546
  0.0002766459324512175
  0.00028387834253148586
  0.00029279971317460883
  0.0003050341436899347
  0.00029456854234863306
  0.0003457162291874369
  0.0003800514308081911
  0.0004123025542379072
  nan
  nan
  0.0002545413076154899
  0.00024507616422790097
  0.00024935810443531194
  0.0002547386847225971
  0.0002595345070059357
  0.00026863745492075646
  0.00027643249316372433
  0.00028604407273568434
  0.000334653205893247
  0.0003595869776548596
  nan
  nan
  nan
  0.0002584425887365649
  0.0002619280931554127
  0.0002557435462202699
  0.0002686509559685894
  0.00027715436639643554
  0.00025210996686954095
  0.0002592309014466193
  0.0002811122650380479
  0.0003469466480466802
  0.0003569865123899109
  0.0004304478501308951
  nan
  nan
  0.0002626957032207379
  0.0002634050609671035
  0.00026811509998446345
  0.00024136153014000258
  0.0002816590442372659
  0.0002920275904376332
  0.00029709730577565
  0.00031127490812778624
  0.00035209197203149464
  0.0003876440456794369
  0.0004369139487486476
  nan
  nan
  0.00026768657443167687
  0.0002701852060535469
  0.0002727309922499014
  0.00028624149621481713
  0.00029393746345708323
  0.00030558733373817144
  0.0002717445748965795
  0.0003332387533948486
  0.0003598929144108597
  0.00039304618462751394
  0.0004462065527978755
  nan
  nan
  nan
  nan
  nan
  nan
  nan
  nan
  nan
  nan
  nan
  nan
  nan
  nan
  nan
  0.0004265613508498868
  nan
  nan
  nan
  nan
  nan
  nan
  nan
  nan
  nan
  nan
  nan
  nan
  0.00028993362395842516
  0.00030924333190396103
  0.00034847685779985373
  0.0003904601374216503
  nan
  nan
  nan
  nan
  nan
  nan
  nan
  nan
  nan
  0.0002594088334781274
  0.0002775587033151733
  0.0002819299474717839
  0.0003174318218170628
  0.00033548952666955504
  0.0003711855685277004
  nan
  nan
  nan
  nan
  nan
  nan
  nan
  0.0002561406488336305
  0.0002657503780870568
  0.0002753348345335675
  0.0002871473747815709
  0.0003038421654004764
  0.0003066753248077939
  0.0003539809101280469
  0.00039099388206394604
  nan
  nan
  nan
  nan
  nan
  0.00025881579921881756
  0.00026093378699155344
  0.0002692122207351162
  0.00027897984996297305
  0.0002832834457242224
  0.00029586240883802266
  0.0003180592651873616
  0.00034286562765405365
  0.00038952643892256264
  0.0004676486989438298
  nan
  nan
  nan
  0.0002609691032589232
  0.0002658986930303466
  0.0002690475812590776
  0.00027909307684426896
  0.0002864527080555492
  0.00029855746549972136
  0.000303966481914672
  0.0003282010828147509
  0.00034799733065108747
  0.00038299772501637836
  nan
  nan
  nan
  0.00026531238863948184
  0.00026983650013738135
  0.00027558742568394777
  0.0002825368091353352
  0.0002822837265917025
  0.000296816945658764
  0.0002978078290008913
  0.00030844166344408706
  0.0003217754135327426
  0.00034929696236121337
  0.0004291995406657459
  nan
  nan
  0.0002698147765189504
  0.00027414580006753967
  0.0002795628485696247
  0.00028578714889264135
  0.0002840206842601136
  0.0002979459092152024
  0.0003124657757390896
  0.00029813119819714325
  0.0003218163852458501
  0.0003356578458697829
  0.0003831838509701891
  nan
  nan
  0.00027411890382733975
  0.00027828104466903417
  0.00028341416540017067
  0.0002891965167129842
  0.00029729269786782635
  0.00030004895433666327
  0.0003124258233333382
  0.0002956607496975779
  0.00034058327136880014
  0.0003661581851874187
  0.00040598487296275365
  0.00045629501100891823
  nan
  0.00027750606847121926
  0.0002815800123723207
  0.0002860144840039993
  0.00029160972153586883
  0.00029145876863114097
  0.0003007300555385034
  0.0003069991560644079
  0.00029514875535164756
  0.0003340291891379676
  0.0003627601944213369
  0.00040188806244771354
  0.00044944190463167043
  nan
  0.00028197746239936396
  0.00028086749179850754
  0.0002883520826564206
  0.00028789968211993886
  0.00029373319502694697
  0.00029590329977004817
  0.0003077878526238974
  0.0003163723375285694
  0.0003339090445686322
  0.00035974013774016595
  0.00038416824025764413
  0.00042841235096758944
  nan
  0.000283304533235669
  0.00028683678965814763
  0.00028435255586730805
  0.000276273083942366
  0.0002885617980195235
  0.00029910861068758944
  0.00031018262893561647
  0.0003165413724135917
  0.00033433328714987676
  0.0003599067941168266
  0.00037965684206216546
  0.0004303806801195326
  nan
  0.00026901349371327504
  0.0002840468062031157
  0.0002798512070619209
  0.00027911821760211614
  0.0002897856525785534
  0.00026867528046769314
  0.0003057053605318344
  0.00031956585615731877
  0.0003366628235423412
  0.0003602865866951149
  0.0003788981871095122
  0.0004249051523853167
  nan
  0.00027475548061332947
  0.00027812609330919025
  0.0002821277711494622
  0.0002870359704728724
  0.0002927552575622277
  0.0003002035603832496
  0.0002872139108076395
  0.0002945442324984086
  0.00033768367996169136
  0.00036184267062837984
  0.0003835338828501922
  0.00042365327929226154
  nan
  0.0002267797544162149
  0.00022960019818755298
  0.0002846742507483023
  0.0002668219620862301
  0.0002676081952657704
  0.0002876793970069377
  0.000293127491589831
  0.0002832255496193926
  0.0003273985163220883
  0.00036314815432226817
  0.00035281047882598456
  0.0004253493760094183
  nan
  0.00027033460146020765
  0.0002735014576379164
  0.00027400184389791266
  0.00027827228456681703
  0.00028524004793231667
  0.0002541034454718394
  0.00026078193863619944
  0.00027962164056538293
  0.0003388133611610423
  0.0003678455079873482
  0.0003696680511955618
  0.00042669721433250083
  nan
  0.0002750420556103616
  0.0002750869450858887
  0.0002794622322055763
  0.000283923125016611
  0.00029827907245127586
  0.00029748224551529257
  0.0003105772411085699
  0.00030940291536083473
  0.0003447318006827633
  0.0003674505727146324
  0.00048615156334547827
  0.00043274761536852814
  nan
  0.0002793494739135415
  0.0002819318768987619
  0.0002833827722133259
  0.0002960122520195907
  0.000301456084690486
  0.00027639091638011947
  0.0002713116715831443
  0.0003172672674482803
  0.0003045986711294935
  0.0004967026373182844
  0.000402849586963299
  nan
  nan
  nan
  nan
  nan
  nan
  nan
  nan
  nan
  nan
  nan
  nan
  nan
  nan
  nan
  0.00033421762704482447
  0.0003976747869378006
  0.0004996137717712235
  nan
  nan
  nan
  nan
  nan
  nan
  nan
  nan
  nan
  nan
  0.00027928925305934697
  0.00029344531152804466
  0.0003147468022066512
  0.00031915468081316164
  0.00035357396953411937
  0.00041405716840956696
  nan
  nan
  nan
  nan
  nan
  nan
  nan
  0.00025431099419612093
  0.00026007854243680236
  0.0002830652633826149
  0.00029700363215261997
  0.00031475077037318726
  0.00033192634841547656
  0.0003648215325503718
  nan
  nan
  nan
  nan
  nan
  nan
  0.0002491864679317822
  0.00026707361988923
  0.0002738269164055253
  0.00028146363376238114
  0.0002921758816647566
  0.00030212241932622353
  0.00032040132967767394
  0.00032428307798722196
  0.0003638549309953465
  0.0004568685018465448
  nan
  nan
  nan
  0.00026085934179121377
  0.0002657535135993113
  0.00027180489667682925
  0.00027984684160640673
  0.00028751567110104335
  0.0002898914811252689
  0.0003025863408752228
  0.00031196193413717216
  0.00033592321912904457
  0.0003533364300000502
  0.0004660018940156308
  nan
  nan
  0.0002675825829330792
  0.0002678855244689763
  0.00027345219308578356
  0.00028147161014379447
  0.00028698793260327525
  0.00028341542410257583
  0.00029927262632329385
  0.00030327164174025385
  0.0003072625996290606
  0.0003257341640763577
  0.0004065167328022288
  0.0004897035747309711
  nan
  0.0002717579706128519
  0.00027155445256389957
  0.0002769382672444815
  0.00028731715005492507
  0.0002874765565527278
  0.0002854757988255292
  0.0002979179977433131
  0.0002955844776843377
  0.0003094972277551083
  0.00033065880371141736
  0.00037053319705082643
  0.00042983953012934624
  nan
  0.00027411162262626896
  0.00027567107528231495
  0.0002833177593903005
  0.0002914094162389404
  0.00028545418539652743
  0.0002916996967991954
  0.0002982620939580717
  0.0002940025478477998
  0.0003114556591074495
  0.00032373651828557345
  0.00039033165407918047
  0.00042978878734201544
  0.0005013615512644727
  0.00027943875801367545
  0.00028385119268073666
  0.00028739008534013773
  0.00029467258791080744
  0.0002937991349563883
  0.0003027182188017846
  0.000279297073717257
  0.00029415322706887413
  0.0003133605189464716
  0.0003200996716187116
  0.00038511176664247855
  0.0003973622553829696
  0.0004753855486930254
  0.000279452731163057
  0.00028395343325484404
  0.000292601949690041
  0.00029817646420904304
  0.0002982244382156076
  0.0003053466886489131
  0.0002804475436734432
  0.00031565547899387286
  0.0003089949598812525
  0.0003539703391629187
  0.00036848692309307307
  0.00040295698337773026
  0.00046362578784239647
  0.00028828706636216807
  0.00028724439621460066
  0.0002953539851406441
  0.000294433714250546
  0.0003011076008363195
  0.0002971191685233632
  0.0003108892339783328
  0.0003163254104341688
  0.00033106730271170764
  0.00035108613292151957
  0.0003650939695956831
  0.00039883643006700904
  0.000462408624539611
  0.0002694902085634627
  0.0002865179201086514
  0.00029103421852820315
  0.00028975741043693826
  0.00029462727146714515
  0.00030466060050272665
  0.00031423687528077133
  0.00031793757486164284
  0.00033199689832458023
  0.0003514698904190826
  0.00036307894160505285
  0.0004002923729863991
  0.0004367902148312194
  0.00027411126039229725
  0.0002782921458543506
  0.00028494972361531323
  0.0002891796668558096
  0.0002728437935335475
  0.00027274990569479865
  0.00031604586336646734
  0.0003191597597681036
  0.00033473967737405417
  0.00035236828527372786
  0.0003638907886425878
  0.0003802920249986918
  0.0004348686659267713
  0.000280232986632348
  0.0002850369633692623
  0.00028892052051189305
  0.0002938995165844641
  0.0002997406817916409
  0.0003063069087985134
  0.0003022507608147541
  0.00032339481840550733
  0.0003272886384798884
  0.0003549468503174849
  0.00033206488891682353
  0.0003723666464101782
  0.0004349815522198096
  0.00028466354723243216
  0.000279621878684033
  0.0002830469558075581
  0.00028182987339358726
  0.00028696481772274993
  0.0002885448095414873
  0.00029721052896624836
  0.00030839277604245203
  0.0003234331648120333
  0.000357117808766802
  0.00032162867798906275
  0.0003586460024882411
  0.0004366141021204314
  0.00028444572913623596
  0.0002763227143807963
  0.00028037636806330785
  0.0002838580620642933
  0.0002923254406445436
  0.00027543387783400433
  0.00026527159465943354
  0.0002826748499065549
  0.0002623218445480633
  0.00035887160945937346
  0.00033283759993704985
  0.00039607645193493363
  0.00043787802093521667
  0.00028144444408573324
  0.0002897383549657096
  0.0002857728963688502
  0.0002980911882684263
  0.00030114212356901896
  0.00031068016043376585
  0.0003078105470462195
  0.0003112954135173036
  0.0003402685839625204
  0.0003586978492394668
  0.0003688092090519492
  0.00039680678632654775
  0.00044107906571004026
  0.00029176647718118085
  0.0002888101029720434
  0.00029829146238839456
  0.0002960986662495431
  0.00027575167187033164
  0.00030591521820710785
  0.0003035970461273768
  0.000335064662084908
  0.00033044727526526364
  0.0003598414594462462
  0.00038445019182719095
  0.00039886065971218306
  0.00044534679200118165
  nan
  nan
  nan
  nan
  nan
  nan
  nan
  nan
  nan
  nan
  nan
  nan
  nan
  0.00030632374491431995
  0.00032630988610860814
  0.0002925647392495868
  0.0003808910689210765
  0.0004380351350931492
  nan
  nan
  nan
  nan
  nan
  nan
  nan
  nan
  0.00027215545557845663
  0.00028075585101145693
  0.00029247693547814846
  0.00031079813873965045
  0.00032156364282716387
  0.00033328440344072244
  0.00038497916629048304
  nan
  nan
  nan
  nan
  nan
  nan
  0.0002619804592905385
  0.0002678579607817376
  0.000276011182895705
  0.0002885868610580541
  0.00027964941612752017
  0.00030456789845986965
  0.0003201449841620705
  0.0003316478657112208
  0.0003553591728608151
  nan
  nan
  nan
  nan
  0.0002505094828519645
  0.00026708590828003335
  0.00027301564388896725
  0.0002804059972866029
  0.0002893403179060381
  0.0002892292263664214
  0.0002915049926440085
  0.000308413823789762
  0.0003302560971221375
  0.0003453944662944411
  0.000446479861805374
  nan
  nan
  0.00026841741342478054
  0.00027111528518645545
  0.0002752410147261363
  0.000281554105523843
  0.00028752123643799174
  0.00028608062207453644
  0.0002956594536112911
  0.00029514922864660765
  0.0003160204417575484
  0.0003244604733420394
  0.00039905765543085024
  0.0004614747003855382
  nan
  0.0002656086870039529
  0.0002735196274328715
  0.0002779538286041892
  0.0002837352090181211
  0.0002885123003796216
  0.0002849870843115538
  0.0002960467478728566
  0.0002964206765786498
  0.00030497720586808246
  0.00030998110512756526
  0.0003717718349629935
  0.0004301583067963204
  0.0005013905324281648
  0.0002753087251505348
  0.0002795630571976075
  0.0002815389372306565
  0.00028921628189501
  0.00028654358046295976
  0.00029448996299193207
  0.0002953803203337084
  0.00029362390506344955
  0.00030257325160726784
  0.0003215212542612561
  0.00037835747834424503
  0.00039552728079219685
  0.00046649096874912444
  0.0002751930375624384
  0.0002836973629040794
  0.00027721176516331186
  0.000293193281120881
  0.00028733600751721544
  0.0002928419832201674
  0.00029704869249568737
  0.0002946261942785113
  0.0002975956476636891
  0.0003154473875473291
  0.0003731829363250699
  0.00038900992965166706
  0.0004386092408826062
  0.0002837073318313166
  0.000282781004524807
  0.0002932144812384978
  0.000283407060454305
  0.00029050285390339053
  0.000306447290690847
  0.00027889094923028396
  0.0002925759284958035
  0.0003263682169734724
  0.00030848182665329566
  0.00036102179466710187
  0.00038297582119771207
  0.0004086054948092045
  0.0002733472052645953
  0.0002781366562228423
  0.0002880225190007844
  0.00029391451824007406
  0.00029951392318603695
  0.0002727106892714173
  0.00031137407513201124
  0.00029422344478871923
  0.00032860639497732906
  0.0003133248769820995
  0.00035679832583938593
  0.0003870818723563796
  0.00042944503675340645
  0.00026765608859933757
  0.00028623914916259654
  0.00029137170797025643
  0.00029710981846494614
  0.00030254844324342637
  0.00029950534535429127
  0.0003138278728266369
  0.00029638938622844824
  0.0003305470387178638
  0.0003139142966210833
  0.0003563483605824388
  0.00038481701535790014
  0.0004215776749454618
  0.00027021258620135767
  0.00027476544996136645
  0.0002934691420844728
  0.00029222832152418863
  0.0003077675802597553
  0.0003022602458858675
  0.000316248497847553
  0.00032023443023588384
  0.00033163149049238237
  0.0003475616412140788
  0.0003576835456231868
  0.0003858521969022584
  0.0004187439761877414
  0.0002776063027981053
  0.00028162989560689386
  0.00028713180478303555
  0.00030369283415364784
  0.0002937760656681546
  0.00030740391641358747
  0.0003184981596669621
  0.00032024393218973285
  0.00032240423771201916
  0.00035053127697687867
  0.0003443603982384889
  0.0003675918641305355
  0.0003719893297161292
  0.00028181222705851976
  0.0002862629530878706
  0.0002817984520637141
  0.00028583998211769416
  0.0003021379800528294
  0.00029650798490856036
  0.00030388508094330663
  0.000310188268186721
  0.00032391930304961577
  0.0003515826042114064
  0.0003149364521894951
  0.00036383069132071475
  0.00038935113579459293
  0.0002876049294277305
  0.00028115916266205956
  0.0002822335880092546
  0.0002832173378506486
  0.000287429552675333
  0.0002906895389555851
  0.000283491563556987
  0.00028750581341724986
  0.00032133102327789356
  0.00034489051224765444
  0.0002999505123875728
  0.00032943114882693513
  0.0003531482130096756
  0.00027007273589897945
  0.00027864973764481156
  0.00028778964277090664
  0.00027879797733483183
  0.0002632959487458738
  0.0003063178935216734
  0.0003169622662487269
  0.00032635257635747094
  0.0002621930181860399
  0.00032053953736894253
  0.00028876205796867177
  0.0003804572873821806
  0.000405195944435453
  0.00028657870440673423
  0.0002906972013384648
  0.00029525357390721677
  0.00029823393598424423
  0.00030705652432591797
  0.00031348147953838573
  0.00030815324255357805
  0.0003082861358465039
  0.0002641612256449597
  0.00027254225118421933
  0.0002846763316307657
  0.0003198855648721723
  0.00041222853722038173
  0.0002922135622119748
  0.0002961816767748605
  0.0003001468753686581
  0.0002982581218368329
  0.0003008773921593627
  0.000307823619936759
  0.00032758536048644845
  0.0003358466899908818
  0.00034477865809156444
  0.0003549772999383251
  0.0003030114953452016
  0.00032207544888967734
  0.00041459084166538675
  0.00031392735904519237
  0.0003445014988149316
  0.0004574846588654501
  nan
  nan
  nan
  nan
  nan
  nan
  nan
  nan
  nan
  nan
  0.0002456778496865256
  0.0002586947834300428
  0.0002694681459050963
  0.0002793852057994048
  0.00029685373818780523
  0.00037334175763707375
  0.00041197248904487933
  nan
  nan
  nan
  nan
  nan
  nan
  0.00027156376805687505
  0.0002775066130074373
  0.0002850204957266541
  0.00029354285491010656
  0.00029965768584164665
  0.00030270131392347933
  0.0003327550525329664
  0.00034128750959807995
  0.0003594089144670703
  nan
  nan
  nan
  nan
  0.00026443582301157885
  0.00027053727956960645
  0.0002777834918699415
  0.0002800611001280869
  0.0002939965052270617
  0.00028913834059713045
  0.00030485864783088114
  0.00030570139731534503
  0.00030458084603797106
  0.0003426351040066089
  0.0004016195777559243
  nan
  nan
  0.0002664352136106514
  0.0002724225604248213
  0.00027528861205448847
  0.00028214082227851124
  0.0002897664469759395
  0.0002835575688722481
  0.00028999205045981876
  0.0002983501714235751
  0.000299587471246046
  0.00031710902934170906
  0.0003888379577394663
  0.0004464267235178389
  0.0005333947071921962
  0.00025240552479412106
  0.00025378032663496696
  0.0002785093259811656
  0.0002830148729333331
  0.0002893266936537345
  0.0002848426018497756
  0.000294663806367809
  0.00028898814461359264
  0.00030539339890647507
  0.0002880017415834427
  0.00036702684763346126
  0.00040623693597380083
  0.00046926034344682224
  0.00025471323197271464
  0.00027516725069845423
  0.0002802365226418338
  0.00028449548174352073
  0.0002860857950537904
  0.00028572499770851536
  0.000295009896686203
  0.0002914500198993739
  0.0002985276915052198
  0.0003013025755385324
  0.0003537009366302185
  0.0003819629483343904
  0.00043933637415567527
  0.00027879211193275607
  0.0002810664124474731
  0.00027908493590123013
  0.0002873430326406224
  0.0002883672882331235
  0.0002869948562112121
  0.00028501242213540754
  0.00029079021879748704
  0.00029642665122306454
  0.000317581035328401
  0.0003483007229226739
  0.00038020822240546014
  0.0004244444314162187
  0.00028216434625716053
  0.000284402062352012
  0.0002762612249196384
  0.00028280895323969796
  0.00028840092539836576
  0.0002686004400468619
  0.0002863369468181465
  0.0002914447120324614
  0.0002961145056067393
  0.00031676452029295475
  0.000353760798034929
  0.00037513323227969194
  0.0004203958773079304
  0.0002617949622666539
  0.00027326754441106733
  0.0002850705929128329
  0.0002839127751249853
  0.0002912501260147425
  0.00027041329572611997
  0.00028814016991446226
  0.00029579822970071256
  0.0002968092213612495
  0.00030978104745510763
  0.0003402917498261165
  0.0003749953281377738
  0.0004155011786587774
  0.00026408206996152785
  0.00028305291486748727
  0.00028810797478852335
  0.0002868711103531493
  0.0003030350923464699
  0.0002972971487425709
  0.0003108272408948962
  0.0002937475388050121
  0.0003265820726144891
  0.0003104974226501159
  0.00035073679840596784
  0.0003770527781080632
  0.00041303467132439197
  0.00026833724930869224
  0.0002731384791961937
  0.00028208681679612853
  0.0002981197250054972
  0.0003062050544957227
  0.0002996757791701381
  0.00026497361420212183
  0.000315247143777948
  0.0003283448774058479
  0.00034521634563566074
  0.0003464852573134831
  0.0003597768469304612
  0.0003959414042456101
  0.0002707828879829436
  0.0002772064612989687
  0.00029670175096384055
  0.0003027013435829394
  0.00030900522355096593
  0.0003022943206189367
  0.000315707691140036
  0.00031742972469972914
  0.0002959738893708935
  0.0002990580323628867
  0.00035474059668898927
  0.00035981498956542897
  0.0003579352282574099
  0.00027741314817520145
  0.00028251736847560954
  0.00028761486725833535
  0.0002932782682892189
  0.00029883302048752154
  0.00026280393411627547
  0.00031820017643988027
  0.0003196919466291481
  0.00032352230135342363
  0.0003001841502120019
  0.0003238317969776694
  0.0003602303931091983
  0.00038433189081452156
  0.0002828546514173103
  0.00028728230816929464
  0.00028139310513492806
  0.0002822103773810139
  0.00028832645339786156
  0.000294136826108474
  0.000302231679646604
  0.00028144884847043915
  0.0003226340300917688
  0.00034927222230293596
  0.0003141208232024448
  0.0003412576092384089
  0.000367300846222655
  0.0002866495011381261
  0.00027487992331977286
  0.0002771792344259893
  0.0002887562007929531
  0.0002915317005964042
  0.0002909696855673718
  0.0002832714895576129
  0.00028701510487769816
  0.0003199389403924722
  0.00031657239726805503
  0.00029914015225488463
  0.0003347898816809591
  0.0003901935501028247
  0.00028119887837939377
  0.00028555544773302606
  0.0002903533611320401
  0.0002577789523528755
  0.00029972609819216013
  0.0003093207846270472
  0.0003163120667105142
  0.00023990811798426135
  0.0003244730585459527
  0.0003191246286070535
  0.00025913441400940624
  0.0002878016373874488
  0.0003914166415501925
  0.00028345134202124617
  0.00028757088694334154
  0.0002924497440871453
  0.0002972728947496048
  0.0003064848286629718
  0.00030699848469559096
  0.00031864746573926614
  0.0002639811544453061
  0.0002845077004277093
  0.0002695116075551714
  0.0002968858016547734
  0.0002925749787715559
  0.0003316386215558081
  0.00029132683399444627
  0.0002878164477241003
  0.0002923545281233438
  0.00029738810000949905
  0.0002970000181336161
  0.0003161629712851096
  0.00032676815253767624
  0.00033313934973928846
  0.00034089683376859245
  0.0003506908278444434
  0.0002574360132736625
  0.0003129115018473049
  0.000333082876849062
  0.000286371852208015
  0.0002980482485014645
  0.00032114771323280857
  0.00034707967443356664
  0.0003509696931026913
  0.00045242865251190215
  nan
  nan
  nan
  nan
  nan
  nan
  nan
  0.00023600359657498498
  0.0002556619376735275
  0.0002597790102413469
  0.0002699584024833028
  0.00028062742660206594
  0.00028651068425030417
  0.00029801043155877323
  0.0003330639322664757
  0.00040005682025716436
  nan
  nan
  nan
  nan
  0.0002740251410293191
  0.00027880632213335557
  0.0002763936634911445
  0.0002814988353703111
  0.00028821648453911336
  0.0003008450925149064
  0.00031502480419901246
  0.0002920532992419031
  0.00030416627583848153
  0.0003553982545390663
  0.00040203390408221403
  0.0005079851768295511
  nan
  0.0001911349679482227
  0.00019562503175011057
  0.0002756635500964133
  0.00026911968278875886
  0.00027334866961880027
  0.0002828590318646534
  0.00029561799152678524
  0.0002952014300217811
  0.000302058224825156
  0.0003248721175404757
  0.00035851048099949613
  0.0004196284650782923
  0.0004940729269014526
  0.00021329033231603405
  0.00026820490781155734
  0.0002746852529648785
  0.0002772509524393273
  0.0002892444086616188
  0.00027675709944510556
  0.00028799585027871645
  0.0002847570191479917
  0.0002889343711502631
  0.0003052779364246765
  0.00033762536030106755
  0.0003995028437366463
  0.00044353570992638943
  0.00026727483459545483
  0.00027177721542232935
  0.00027791190516331186
  0.0002559191615985804
  0.0002769618441583145
  0.00028537840948225
  0.0002784731545682662
  0.00028721419092418265
  0.00030159478105713897
  0.0002946947240244794
  0.0003301515771014751
  0.0003814851203568807
  0.0004194020752171947
  0.0002809103289166597
  0.00027767297036447033
  0.00027677980378621256
  0.0002818688288046644
  0.000291313820392127
  0.00028550064067966546
  0.0002767739781474359
  0.00028516276091220585
  0.0002985510006805372
  0.00029380433509376306
  0.0003469424607054876
  0.00036938752805730095
  0.0004083131865544885
  0.0002835571638454263
  0.000288086223775759
  0.0002781562975868951
  0.0002838172340038388
  0.0002931330925512852
  0.0002791687565235007
  0.00028653660981091227
  0.00028453568967586203
  0.0002974969480220497
  0.00031939304142692847
  0.0003447373053030932
  0.0003723603389612789
  0.0004014093438094616
  0.0002685930016162896
  0.00028075085254064834
  0.000278157328440894
  0.00028638286326280684
  0.0002957130707098399
  0.0002568286543599263
  0.0002860412261861457
  0.0002868414514636811
  0.0002954484623087395
  0.0003139748599962675
  0.0003381290220693195
  0.00036534617505152884
  0.00040449453778438433
  0.0002611000328202477
  0.00026594533604001685
  0.00028858568183095525
  0.00028609117018962713
  0.00029477393292890526
  0.0003123577158154878
  0.0002617690751927132
  0.0002864827082459795
  0.0002906659157965783
  0.0003144708502087357
  0.0003254795099025909
  0.0003521440771335713
  0.00039577273263690196
  0.00026587352879433733
  0.0002722911402680184
  0.0002925743727150273
  0.0002886876605623627
  0.00030545810177402295
  0.0003135709963046601
  0.0002631809603450201
  0.00028736225231225225
  0.00029181071563725154
  0.0002956895853268018
  0.000342134890354775
  0.00035280720950489
  0.0003820473259494751
  0.0002717423072316723
  0.00027638672996440304
  0.00028102560579222635
  0.00029988857507057325
  0.00030801360617922904
  0.0002578982878897521
  0.00026496010263255557
  0.0003150013049017609
  0.0003032146949473703
  0.0002975482745562031
  0.00034301922969749845
  0.0003529463489367728
  0.0003776966400014318
  0.0002741945997559062
  0.0002787823670771157
  0.00026177033518969196
  0.0002672951491020647
  0.00031058201941304615
  0.00025676086841343337
  0.00031155092975496866
  0.00025367055523991313
  0.00030207773805190365
  0.00029844187331108847
  0.00034401590455928336
  0.00035844763470150844
  0.00037124967524214305
  0.0002788583650209275
  0.0002597551389509361
  0.00026456962183415034
  0.00026974878233994553
  0.0002527279698996807
  0.0002590909414228167
  0.0003139222072171753
  0.00030613551528005416
  0.00030686083733112447
  0.0003074193460221013
  0.00034912929417735495
  0.0003524489494275418
  0.00037137262042191655
  0.00028374334744010423
  0.0002766599257610824
  0.00027514763057397894
  0.00028297547586331016
  0.00028879685342500413
  0.0002936538215988414