// -*- C++ -*-
// File generated by PyFoam - sorry for the ugliness

FoamFile
{
 class scalarList;
 format ascii;
 location constant;
 object Su;
 version 2.0;
}

26676
(
  nan
  nan
  nan
  nan
  nan
  nan
  nan
  nan
  nan
  nan
  nan
  nan
  nan
  nan
  nan
  nan
  nan
  nan
  nan
  nan
  nan
  nan
  nan
  nan
  nan
  nan
  0.4499192616977348
  0.35282777432731816
  nan
  nan
  nan
  nan
  nan
  nan
  nan
  nan
  nan
  nan
  nan
  0.7542624868942661
  0.6408915536965829
  0.5342939066919604
  0.4277269877261968
  0.3237096089938419
  nan
  nan
  nan
  nan
  nan
  nan
  nan
  nan
  1.0140479929180222
  0.8932229845624081
  0.7720156075225231
  0.651664901229743
  0.5372427935994625
  0.42503111150528056
  nan
  nan
  nan
  nan
  nan
  nan
  nan
  1.2329160002842556
  1.1041710480557008
  0.9749625498223489
  0.8468839219146839
  0.7204253392291674
  0.5952411791985223
  0.4767059445483843
  0.3614013636238256
  nan
  nan
  nan
  nan
  nan
  1.4148293224342952
  1.2795227621156464
  1.1435978076901365
  1.0080294846525621
  0.8737626018304028
  0.7408367141724012
  0.6119122703792299
  0.486698055129782
  0.36457243349559165
  nan
  nan
  nan
  nan
  1.562264910882824
  1.4224084542123718
  1.2813554465372412
  1.1401726068459341
  0.9993226777449605
  0.8599098098301472
  0.7232778673676551
  0.5902084634471856
  0.45852831090671337
  0.3379311321249112
  nan
  nan
  nan
  1.6786514926894414
  1.5352880337083363
  1.3906200425232655
  1.2448266633842533
  1.099537802229311
  0.9550734946629537
  0.8119222817192374
  0.6727563097023385
  0.5375704943576162
  0.3924756637087239
  nan
  nan
  nan
  1.7668326823494824
  1.6212610929888718
  1.4740044730793282
  1.3252854997488057
  1.1762811923507794
  1.0282451578653693
  0.8808457160715084
  0.7364483341560703
  0.5958028950746156
  0.4584795784136042
  0.3260745981750421
  nan
  nan
  1.829799616342959
  1.6831000656517878
  1.5341694827084205
  1.3839263517454707
  1.2331380618584147
  1.0818809525524795
  0.9314288660920707
  0.7827535004163122
  0.6375462028680486
  0.49779393258946236
  0.36258587009352
  nan
  nan
  1.8704699312960393
  1.7237820225443692
  1.574781867416309
  1.4239523250354784
  1.2718283661861676
  1.119049264488565
  0.9665397480041533
  0.8157351589418333
  0.6676750941342092
  0.5242727507274447
  0.3859488305827627
  nan
  nan
  1.8929715106363825
  1.7470715196748212
  1.5986977580930448
  1.4480362870171972
  1.2957928277204032
  1.142549848000215
  0.9892362304319379
  0.8370450499901917
  0.6873421387148326
  0.5419601386128872
  0.39872344546463573
  nan
  nan
  1.900148992621249
  1.7558205144336634
  1.608983934872895
  1.4595020280048443
  1.3079594621767046
  1.156367979548067
  1.0021114801659243
  0.849556542143425
  0.6992093406950077
  0.5524691087797742
  0.4085773201099215
  nan
  nan
  1.8954891114523142
  1.7535394616981654
  1.6085092002109675
  1.4607903070879078
  1.3109395761119977
  1.1593472433390457
  1.0071844701457946
  0.8573490755343675
  0.7049193344953324
  0.5581191200502331
  0.41111895893073225
  nan
  nan
  1.8817148818783394
  1.7425376145666958
  1.6003093749592874
  1.4551759904675396
  1.3078235023678026
  1.1587447272019549
  1.0082981565047806
  0.8543719589531373
  0.7080982911768101
  0.5604584059214123
  nan
  nan
  nan
  1.8608095982694581
  1.7246203748014768
  1.585643311120908
  1.4427087744555576
  1.297663974333728
  1.1439719670740192
  0.9713415485702563
  0.8276348144019261
  0.7048477698995519
  0.5500045658923156
  0.4136934433241752
  nan
  nan
  1.8347820200502465
  1.7020399188883908
  1.565725650467158
  1.4236729718164964
  1.2838500012071947
  1.1393066199286725
  0.9940531787791103
  0.8477007107734397
  0.6998065857282282
  0.5554133800559513
  0.40776659001627186
  nan
  nan
  1.804903757812026
  1.6755658184990059
  1.5425880140865553
  1.4058932189727453
  1.2664953795180307
  1.124478236968985
  0.9476405291349207
  0.8365486044384541
  0.692099521186212
  0.5496098351655903
  0.3998854248787529
  nan
  nan
  nan
  nan
  nan
  nan
  nan
  nan
  nan
  nan
  nan
  nan
  nan
  nan
  nan
  0.34978041998051695
  nan
  nan
  nan
  nan
  nan
  nan
  nan
  nan
  nan
  nan
  nan
  nan
  0.854838728566237
  0.7131734718958873
  0.5729140150605543
  0.43698455019898264
  nan
  nan
  nan
  nan
  nan
  nan
  nan
  nan
  nan
  1.2785131570199422
  1.1186500936544708
  0.9640516957067773
  0.8018028682267853
  0.6563607836325885
  0.5092647121894315
  nan
  nan
  nan
  nan
  nan
  nan
  nan
  1.6359687612974028
  1.4661311556262346
  1.294839315389772
  1.1233941682459392
  0.954994462400904
  0.7928210419127983
  0.6307373046949534
  0.4755919992757153
  nan
  nan
  nan
  nan
  nan
  1.935899138107557
  1.7557153846823579
  1.5745397582494274
  1.392375629281586
  1.2123466145552073
  1.0336279315643577
  0.8576505190622707
  0.6874372266929829
  0.5223807115602656
  0.3483143212762835
  nan
  nan
  nan
  2.184812335087899
  1.9970377932570813
  1.8070364852810685
  1.615781701528993
  1.425353522484208
  1.2352379419317938
  1.048379624126996
  0.864589015772221
  0.6874947709536776
  0.5109287043103428
  nan
  nan
  nan
  2.3879552777022357
  2.19388399200082
  1.9973532990560205
  1.7990215190237686
  1.6004314438805034
  1.4022053166144788
  1.2055443103517203
  1.0116894204179787
  0.822986798799285
  0.6368745105584555
  0.4627321139223685
  nan
  nan
  2.5494673041963365
  2.351088156314629
  2.149816211311621
  1.9457733482999477
  1.7414410829789013
  1.5365760755164408
  1.3319597564468708
  1.1306336501735974
  0.9328123753646445
  0.7388294186862101
  0.547276440963767
  nan
  nan
  2.6734722180753634
  2.472445810507429
  2.2679959303599673
  2.0602731397962613
  1.8511199897198678
  1.641721801969337
  1.4317478544727849
  1.2240876577122208
  1.0184620121310854
  0.8181334975431268
  0.6240777901452189
  0.43389003909294854
  nan
  2.7641922495428677
  2.5617710580347377
  2.3557027022502535
  2.1463751306702643
  1.9347911937731932
  1.7215458205478882
  1.5078880754764779
  1.2954286163794229
  1.0843599638834789
  0.8777560590117448
  0.677228453353198
  0.4845593436500641
  nan
  2.825444715048426
  2.623184753490116
  2.4168065104524197
  2.2069892089082894
  1.9941908188357027
  1.77944632179315
  1.5633210651444989
  1.3472307438911333
  1.132760746849507
  0.9217298872705766
  0.7170229055906402
  0.5171938821689955
  nan
  2.862788729473994
  2.6617859330917377
  2.4562069480723308
  2.2465875456670283
  2.0337898634209073
  1.818403953270139
  1.6013216363953793
  1.3835720344379756
  1.1668540684166355
  0.9529250725407539
  0.746452253813848
  0.543047931035972
  nan
  2.8791895119602167
  2.6807177248160454
  2.4770333456862854
  2.269149543500783
  2.0573836489103265
  1.843076699909492
  1.6254858914623134
  1.4074317120294548
  1.1895315818668788
  0.9741285599748928
  0.7662853586776855
  0.5585268515068149
  nan
  2.8800850000451317
  2.6842499155420905
  2.48333237269058
  2.2776904791239914
  2.0678098333857626
  1.854398558354116
  1.6395058199283157
  1.4230958470651573
  1.2035362739313613
  0.9876849788763081
  0.7782905872042506
  0.5675754379205521
  nan
  2.8649686392545886
  2.6728350719376412
  2.477332809841419
  2.275060985936136
  2.068411923439041
  1.857380791841228
  1.6439742672886866
  1.4291510701677446
  1.211893356730222
  0.9948595620484099
  0.7647936507747843
  0.5722731579664797
  nan
  2.8452031680912615
  2.6568314032694174
  2.4628919123329673
  2.264064512054042
  2.060277678626507
  1.8498973289359266
  1.6349523182399897
  1.4256931914524884
  1.212362986029001
  0.997057108177524
  0.7871442107831512
  0.5664524373185478
  nan
  2.8147968325973616
  2.631036614437262
  2.441450810187785
  2.246456355779967
  2.0459146214375656
  1.8418697292753035
  1.6332311547102196
  1.423951267408293
  1.209028207907882
  0.9968760143650433
  0.4041417138277498
  0.5499707151713966
  nan
  2.7790092985996324
  2.5995835793965587
  2.4143375253629134
  2.2233583412367626
  2.027315281788458
  1.8283031916434036
  1.6154882207570807
  1.414574694370908
  1.1949446726114008
  0.40349014147316886
  0.7842122895198705
  nan
  nan
  nan
  nan
  nan
  nan
  nan
  nan
  nan
  nan
  nan
  nan
  nan
  nan
  nan
  0.7908897674641179
  0.5896586509484334
  0.36783988490302516
  nan
  nan
  nan
  nan
  nan
  nan
  nan
  nan
  nan
  nan
  1.4446285327930166
  1.2531817022241383
  1.0525230709862767
  0.8792107528499218
  0.6966485729750552
  0.5093683631033384
  nan
  nan
  nan
  nan
  nan
  nan
  nan
  1.992372487981044
  1.7849397535847407
  1.573353014154247
  1.3619761569212787
  1.1498669022847454
  0.9540034511726265
  0.7535410111992901
  nan
  nan
  nan
  nan
  nan
  nan
  2.4502285886756856
  2.2276505054108813
  2.003135319899711
  1.7759306637535746
  1.5503474742452024
  1.3280661880539502
  1.1066464346451557
  0.8923796189383373
  0.6785849443884966
  0.46171333085066607
  nan
  nan
  nan
  2.8325779142017256
  2.599124709222755
  2.361790001221996
  2.122550358531816
  1.882377339893931
  1.6424617881630434
  1.4042757298469948
  1.170216998717178
  0.9419656579107758
  0.6829858571418773
  0.4928462516618711
  nan
  nan
  3.1500671591759715
  2.907071355851334
  2.6598527667802156
  2.4105868990996457
  2.1583219354660486
  1.9054107032604517
  1.6534867422814934
  1.4043261949391206
  1.1591863271845626
  0.9149958885222748
  0.6897411641209327
  0.4469051077029276
  nan
  3.4100901016291174
  3.1597289608576844
  2.9050879906661473
  2.6464782215990597
  2.3852395797450026
  2.12302846809418
  1.8598975595920644
  1.5986095081799443
  1.3406012261710456
  1.088098777210968
  0.8435969073132112
  0.6015287802458642
  nan
  3.6183785636400025
  3.362920699870868
  3.102469529875086
  2.8375300152482126
  2.5703022120807084
  2.299686229286151
  2.028489941404168
  1.757238091313796
  1.4884157163431586
  1.2243437283581444
  0.9645148051240908
  0.7152958456512072
  0.45276488176682567
  3.781538907736455
  3.523024762819048
  3.2579106167385703
  2.9893657722958022
  2.71606972432352
  2.44076451644352
  2.1626166438647068
  1.8842481232428843
  1.606965027461591
  1.333788184572357
  1.0638296535970186
  0.8072421141585849
  0.5466275558787959
  3.9015791228751993
  3.6416470571588446
  3.376737661777691
  3.1050507533088774
  2.829702665961869
  2.5490830930371495
  2.2670884538095395
  1.9831020526481313
  1.7001455768711264
  1.4180974887730822
  1.1427989672433776
  0.8757117960371555
  0.6112367315119054
  3.9872793581477826
  3.7274852231879505
  3.4613830617249453
  3.1904536685564984
  2.913183676672513
  2.6309566266030777
  2.3463032378457482
  2.0591180340203046
  1.7710907062794106
  1.48391528407178
  1.2027979608999482
  0.9283195574801385
  0.6561925700431641
  4.043372143561308
  3.784187464900964
  3.5192546706436874
  3.2481152266097983
  2.971334690518682
  2.689363314393503
  2.403167435173953
  2.1145309779841437
  1.8238093208032495
  1.533310160335352
  1.2480822919348995
  0.9675433631914537
  0.6921942779306459
  4.072297325296348
  3.816853555021255
  3.5547083347226307
  3.284818997133203
  3.0094872966714594
  2.7283477220140613
  2.44275809414886
  2.152812254592698
  1.8613162230657663
  1.569237110304976
  1.2813636794179584
  0.9999151679838224
  0.7180967057605928
  4.081153226783236
  3.8295927354909782
  3.5706231991503974
  3.3043405460571864
  3.0310349914946237
  2.7514531673009346
  2.467602627533189
  2.178982936769152
  1.887431351134583
  1.5941179200093978
  1.3064197156113826
  1.0203547637308086
  0.7367942564733232
  4.073272108714135
  3.826102166176687
  3.5709993807740776
  3.3078869390152903
  3.0383120045605807
  2.7621883064777144
  2.4811673629329847
  2.1939817271536213
  1.903964005172211
  1.6105976688099954
  1.311567791193182
  1.0162119425487857
  0.7499795112853648
  4.052148306293558
  3.8097331242712102
  3.560062411127476
  3.301356035843323
  3.03522541201299
  2.763790985514438
  2.4843517757625047
  2.201811232758581
  1.8214734133403758
  1.6203213017216824
  1.330541122978667
  1.0465417555344219
  0.757202532009354
  4.021470531576286
  3.7838434636233296
  3.5383366571144785
  3.2855485711635994
  3.0243580803852437
  2.755776480509331
  2.480461877773099
  2.200388256247797
  1.9137832165724564
  1.6249146643235033
  1.3386923031807383
  1.0529553267829799
  0.7612233216832848
  3.9824227623480986
  3.750572456050071
  3.5103287719875893
  3.2618314268499913
  3.0066918579360324
  2.742222290116711
  2.4713582032993373
  2.19289307098549
  1.9125428987674435
  1.624975922053902
  1.3369878947973028
  1.055505796161932
  0.7616560736197835
  nan
  nan
  nan
  nan
  nan
  nan
  nan
  nan
  nan
  nan
  nan
  nan
  nan
  1.4510200272142966
  1.2258869952064537
  0.9949753744039831
  0.8022914380862713
  0.5805056083251481
  nan
  nan
  nan
  nan
  nan
  nan
  nan
  nan
  2.2707808260236
  2.028129370618562
  1.7830212903710698
  1.5301744853888044
  1.2935561551689192
  1.0610798592965491
  0.8218828168779078
  nan
  nan
  nan
  nan
  nan
  nan
  2.9403101655892026
  2.680259275300326
  2.4148412949013247
  2.1462777720729114
  1.8816736784808457
  1.6142648215472934
  1.3502455653350873
  1.0934728963974232
  0.8216185583062225
  nan
  nan
  nan
  nan
  3.497849189333335
  3.2213582736132826
  2.939790326290902
  2.6539942451151046
  2.3659735801632427
  2.079177346706017
  1.7917792960036734
  1.5076803403216048
  1.2285499867167395
  0.9476860695730223
  0.6786468531990445
  nan
  nan
  3.9611011771854447
  3.6734388021978845
  3.3791254853306847
  3.0781295943356053
  2.774897895104347
  2.468668315381667
  2.1621930610918194
  1.8570094399853667
  1.5552439857733065
  1.2594118756990926
  0.9679988569105429
  0.6775942182785929
  nan
  4.3482195551433795
  4.050261746294376
  3.7435131143818254
  3.4304423915404176
  3.114163882612002
  2.794192649473121
  2.472091404076812
  2.150362151707896
  1.8304944561605785
  1.5144897386715241
  1.2051066099950258
  0.8980206427502593
  0.5917010117201457
  4.66597885234861
  4.358345415299501
  4.043852899480271
  3.7210441250102186
  3.395358733084419
  3.0642785575727265
  2.729564555324053
  2.394135075803811
  2.0596616584677596
  1.7275393562525596
  1.3983304662675984
  1.0838320063138964
  0.7666257465900523
  4.9214691301620075
  4.608540278362171
  4.287002780642669
  3.9579963640360396
  3.62461766342193
  3.284262174643516
  2.9410382790828105
  2.595184093023632
  2.248749679495253
  1.9039080228135057
  1.5611583744267772
  1.2304592450294363
  0.9051458477684036
  5.122812460252932
  4.8058316177167955
  4.480671654577906
  4.148279662596968
  3.8087614486841486
  3.462753326966682
  3.1121697094551624
  2.7581892664405436
  2.402323589399845
  2.047660619907524
  1.6948371846578856
  1.3496256988220465
  1.0141715278760837
  5.2773977159081165
  4.958887964326105
  4.631226752846693
  4.296430088536971
  3.951537374654202
  3.6031279820510935
  3.247722022704056
  2.888342590929433
  2.5257421904522217
  2.163233692823363
  1.8012057213163
  1.4447185401940696
  1.095112986666502
  5.388895367752945
  5.070520010539375
  4.743630287014045
  4.4075482176407155
  4.061559934567934
  3.711892394365234
  3.352855990721894
  2.9901323362558885
  2.6233523458058823
  2.254810950385226
  1.8857269007013329
  1.5211414638840441
  1.1628045964361662
  5.464987872532058
  5.148689405186182
  4.820695526269282
  4.487433971068092
  4.142718753573521
  3.792515061011086
  3.4320407543997393
  3.067553640150736
  2.698196517664494
  2.3249631084674527
  1.9521834519223018
  1.580996832958071
  1.216329764526768
  5.509723668148515
  5.196965532567308
  4.873824322195949
  4.5404811116666846
  4.198769024679561
  3.847521066225393
  3.4896697941139445
  3.1246032882116057
  2.753948591411125
  2.3785039712545277
  2.004289822358502
  1.6309238849827787
  1.2579396232691453
  5.5297817095626565
  5.221331243931087
  4.901457671537334
  4.572706964583487
  4.234507282445174
  3.886750729604038
  3.530043631653002
  3.1657304788189298
  2.795351563135318
  2.419622401229322
  2.044810874628364
  1.6678918069373956
  1.2967598015035182
  5.5285609756300005
  5.226726909859901
  4.912585523441547
  4.586582822863677
  4.252344376369999
  3.907865996125129
  3.5547358307039687
  3.1938589973920046
  2.8239420303590963
  2.4485027565921977
  2.0644626111218205
  1.6880775621541027
  1.2503905379269633
  5.514015698803172
  5.217229069808937
  4.907734993496581
  4.58796209344623
  4.258501624513621
  3.9178907173555775
  3.5680482082147367
  3.2083926900334214
  2.8257933842266936
  2.471936906600322
  2.0466528822053984
  1.7150900410767473
  1.3412445683372785
  5.485786435175292
  5.19396371674694
  4.890945434487782
  4.5767527982243745
  4.25095114547472
  3.9165910765269483
  3.5704952966989274
  3.216709954404214
  2.8303820618638342
  2.435991526054338
  1.978205512149302
  1.678624594142695
  1.3543720244992759
  5.444532465271295
  5.159387969956809
  4.863103421594797
  4.5556601160860195
  4.236494725632471
  3.9077543638169026
  3.565876311674377
  3.2159193158029793
  2.85625982551967
  2.488726308873653
  2.0930583733979526
  1.6740745933541905
  1.3651741465955953
  1.2144584024940182
  0.9554137738834553
  0.6891819380358797
  nan
  nan
  nan
  nan
  nan
  nan
  nan
  nan
  nan
  nan
  2.436885482808838
  2.161647008586264
  1.885181591751443
  1.608072673184055
  1.3277661894718966
  1.0661894928873705
  0.7984268849397339
  nan
  nan
  nan
  nan
  nan
  nan
  3.4008423916085992
  3.1051185504546037
  2.8028565130112892
  2.49589895396674
  2.1891022543093954
  1.885482290304111
  1.5807724756880195
  1.28549601737275
  0.9690543101721059
  nan
  nan
  nan
  nan
  4.186651408750673
  3.872620977032507
  3.5495942400093115
  3.2219721101061327
  2.8865334239092832
  2.5549601910972273
  2.2199019951428225
  1.88795916713219
  1.5578091884680474
  1.2357660084559248
  0.916320296660096
  nan
  nan
  4.837417350696061
  4.507270981903722
  4.167454384324185
  3.820582539747425
  3.4669770032806
  3.1103786804678126
  2.7508670336550245
  2.390539965444151
  2.032370744035344
  1.6790418349121885
  1.3267843494196119
  0.9740766981987485
  0.5994832558000306
  5.37959950913331
  5.0368412714067565
  4.6827944188667585
  4.3184255325326095
  3.9482821771699266
  3.572785972501521
  3.192697615119967
  2.8108961438363176
  2.4287751790986256
  2.0476715193381363
  1.6726998292185677
  1.30223253789387
  0.9281269930971993
  5.8332389088992604
  5.477899636835629
  5.110835938587989
  4.734399955588207
  4.350852222121952
  3.9590233693050383
  3.56276335849478
  3.1628327022950344
  2.7617884910409956
  2.3612611430132557
  1.9623544920496276
  1.5715610559219622
  1.1803047671060072
  6.203993482958939
  5.840173160075246
  5.463445780538458
  5.078354644921926
  4.6839699067370795
  4.280633391097216
  3.8703363792833625
  3.4568698468294117
  3.039790715097314
  2.62227729207348
  2.205091171441937
  1.7924668823192256
  1.3849267897058481
  6.506980140854335
  6.1362572510114965
  5.755147735026161
  5.360319887565039
  4.95696925271741
  4.544899864741986
  4.125228101564831
  3.7003567451308563
  3.271264480967607
  2.8399629551672128
  2.4066813268498017
  1.9784815820987185
  1.55148542057872
  6.7496667537761565
  6.375794073755101
  5.986014875918171
  5.587996175801283
  5.179383450706835
  4.760796876544486
  4.334752475448721
  3.9009113306993997
  3.4620656550605595
  3.0195328826858865
  2.575514175583903
  2.1320932685028704
  1.691221458746908
  6.9375904986971895
  6.559135869448712
  6.1691739635713665
  5.768628514661903
  5.356184567891093
  4.93477908524932
  4.5029578336492415
  4.063206321526791
  3.6179203434708267
  3.166896735408542
  2.713022868703439
  2.258725316192231
  1.8061426565991718
  7.075382635118245
  6.698088882043705
  6.308757168262243
  5.9082912478787835
  5.495693852326312
  5.071400839938203
  4.636036845981373
  4.1934257262586545
  3.7433235329335837
  3.2855387888218046
  2.8253903308525508
  2.364003369085225
  1.9023880863724136
  7.174643492568955
  6.80128478976777
  6.411875255693291
  6.013056392401522
  5.600192556685368
  5.175852461902876
  4.740585456165487
  4.295656579962144
  3.842860529711994
  3.382764001465317
  2.9158712999851586
  2.4487011795209943
  1.9831496546062277
  7.238450453836165
  6.865847900027288
  6.481441118092496
  6.0843634071409305
  5.675171507941847
  5.252742222833447
  4.819116651382854
  4.374243534595292
  3.9219704279275023
  3.4583630915073615
  2.9901424583677025
  2.5172281349835326
  2.043958089634451
  7.273933814466592
  6.9070438297278915
  6.527064323525299
  6.133586796357846
  5.727223312015805
  5.30691104928724
  4.876567955779391
  4.433709736062758
  3.9800475297082536
  3.5165908479151797
  3.0483782880770525
  2.5730620048907937
  2.0977736601181665
  7.2837997715232765
  6.925379792788109
  6.549447746963434
  6.161038752057609
  5.758105076223402
  5.346107545063083
  4.916268988769114
  4.476038303678646
  4.02388171777903
  3.5630942338189318
  3.0937142779470874
  2.6183325737310623
  2.136372426550664
  7.276443173130667
  6.922140357275876
  6.553914893672291
  6.172155153309461
  5.775487060510819
  5.3642732232563075
  4.941437904409597
  4.491148802054589
  4.056758330390415
  3.5981755427003987
  3.033931383953655
  2.605871116773637
  2.1705925108715927
  7.2536428910900845
  6.906862920375812
  6.544367782960338
  6.1681322742609925
  5.776894459566734
  5.373545299226047
  4.955456417981063
  4.523064874518206
  4.079213723369744
  2.210690873688424
  3.153747804380396
  2.6393977726723814
  2.184519499316401
  7.217527752949685
  6.878955607406587
  6.524215828799506
  6.154845892107054
  5.7709710149663564
  5.372851288059591
  4.958878335890723
  4.531753932070855
  4.0902067964552415
  3.6380957087601478
  2.837586088033272
  2.6940971129357667
  2.2037581269967292
  2.4493380951791814
  2.127718888368107
  1.8119079517508587
  1.5037941649071083
  1.183211512020313
  0.8904088204163231
  nan
  nan
  nan
  nan
  nan
  nan
  nan
  3.8580980811125296
  3.5216139360066174
  3.1807793673452966
  2.834920247531557
  2.490061271221311
  2.145513674857845
  1.800988547216115
  1.4664280923470367
  1.1417099913956048
  nan
  nan
  nan
  nan
  4.948917541036875
  4.596724960700203
  4.235134226285369
  3.8640998592651505
  3.488033571883334
  3.1081955840241395
  2.7269716926731062
  2.3492314128852074
  1.9713672439057242
  1.6022506308186368
  1.23634097903724
  0.8194151962009247
  nan
  5.832487934990495
  5.462671264291697
  5.0837171512074155
  4.690268480677534
  4.289756037572484
  3.8829430515862495
  3.4724090749273295
  3.0588075806579806
  2.644645719417232
  2.233851113465928
  1.8262743951296747
  1.4163720513278146
  0.9853421850169668
  6.570695083196315
  6.183702893197259
  5.784220028421582
  5.371165584705925
  4.949639132007308
  4.518994295008258
  4.083365361949064
  3.6426559941286962
  3.198914255250527
  2.7547204995476005
  2.3130247643007094
  1.8687593940206728
  1.4309502436457093
  7.186012518876383
  6.783674681454202
  6.366438583460696
  5.938271508721446
  5.497300337695409
  5.048514248611506
  4.5925761410755115
  4.12836937330205
  3.660651885416826
  3.189994079613252
  2.719420600864888
  2.2491224345078797
  1.782449360806265
  7.699453391288475
  7.28640965371162
  6.856465494469556
  6.413200176825481
  5.958665096401322
  5.490863125003569
  5.017762168564901
  4.535828296137531
  4.047765533844254
  3.5552040807238416
  3.0613625946667082
  2.5670202559663027
  2.073574612727482
  8.126151240981217
  7.699357002365973
  7.262234367463461
  6.807587697534942
  6.340811019962134
  5.859992704365792
  5.373413308803573
  4.877066310305684
  4.372202018548493
  3.8631812841137383
  3.3490655826122797
  2.833469052568588
  2.3187418866286205
  8.47872585844844
  8.043946419213468
  7.594589276392637
  7.133794677253368
  6.658168964505509
  6.169177100951334
  5.671679450946225
  5.161155537480904
  4.645712721922152
  4.120718209114202
  3.591222975532807
  3.059372061512219
  2.5245253540882286
  8.762152095659712
  8.323156501894417
  7.866748982237725
  7.3979162003677486
  6.916183501738575
  6.422316793982544
  5.917645160928468
  5.401362517564413
  4.873182400822442
  4.3368880493192385
  3.794869970433585
  3.2492277192677306
  2.6984655960092883
  8.982822339777709
  8.538721512924385
  8.084556942972581
  7.612448932998281
  7.128514565422105
  6.62904064033545
  6.119346015106868
  5.59417372401212
  5.061768850439584
  4.517803637640684
  3.9663451780555694
  3.4082030301723463
  2.8471533383609953
  9.150038370510234
  8.708708914495816
  8.253380037246341
  7.782103351605546
  7.296580014659873
  6.793607322261029
  6.282689193093879
  5.754068670624847
  5.2161374836434335
  4.667945271795705
  4.1081054274834905
  3.541431063768286
  2.9702474948795663
  9.274638854725165
  8.837218357970391
  8.385491783110824
  7.914616139669728
  7.427480739681737
  6.926463603243765
  6.413892262587896
  5.884350830488109
  5.341659907477137
  4.79023456683199
  4.225624973634265
  3.6521860076615433
  3.073702788979341
  9.359640584299836
  8.930719894902788
  8.47919953047413
  8.011635368294261
  7.526310904274403
  7.027471811587545
  6.516148552170954
  5.984744840977319
  5.443839848608677
  4.889236732846776
  4.320369197546999
  3.744061166265351
  3.16064978406236
  9.413788403776662
  8.98729381337109
  8.541168910429223
  8.078619520710612
  7.5996541642637645
  7.102128709974021
  6.592528509092208
  6.065331858160999
  5.5243019219531915
  4.969304017405176
  4.400848453912078
  3.821900635722708
  3.233669787957299
  9.444093560498478
  9.020549347049213
  8.580286174294336
  8.123411929378586
  7.648508774131637
  7.157851796537859
  6.651000852266992
  6.129254773241615
  5.588329621629326
  5.034917285516497
  4.467629472098394
  3.8847749617039797
  3.293262268425166
  9.444621201247676
  9.027523801724316
  8.594234353300736
  8.143843792487942
  7.680064279375383
  7.195877802400224
  6.689018187293043
  6.173299109871092
  5.637478970966552
  5.0760244612772185
  4.311261542283658
  3.9340170225029456
  3.3444219568602516
  9.430760400995366
  9.022084671183077
  8.595620967618547
  8.153485946847159
  7.693665691887558
  7.217933817290255
  6.71848050765275
  6.207055906704349
  5.531855314147462
  4.766121609909084
  4.305545785664853
  3.979059723401131
  3.3906510298676538
  9.405646243061943
  9.000419858232007
  8.582778161523487
  8.153325088672087
  7.698901380381676
  7.227428165545124
  6.736688640046888
  6.226323417487019
  5.699651889996174
  5.156684630060163
  3.442146998558092
  4.017311639519957
  3.4253498935586766
  4.502780972722832
  4.076186594096043
  3.6602346768837877
  3.2519956766045968
  2.8496904339569005
  2.4559459658145797
  2.071821020516168
  1.6967365140372932
  1.3229147355368096
  0.9345635574989376
  nan
  nan
  nan
  5.99170035916055
  5.577748419335616
  5.156688464181221
  4.73036711892272
  4.302684821631119
  3.8730069262912274
  3.4422041939130272
  2.962330486730954
  2.585947147975585
  2.164384796276829
  1.7489720520031518
  1.2645191933422977
  0.8066348582239138
  7.156114985623735
  6.734656497629992
  6.295977852227508
  5.853845195006348
  5.400175523027519
  4.939849317101495
  4.474517318947897
  4.007181148868169
  3.5366513224346896
  3.065656493300956
  2.597739012063072
  2.119965333666563
  1.6620021488068406
  8.110465793375365
  7.670123318038662
  7.218571990555921
  6.7538541860392165
  6.276912434029998
  5.789692442725673
  5.295913683527476
  4.7959688036832695
  4.290971444470825
  3.7816372730986045
  3.27273937506801
  2.7609144921298725
  2.2427683359946182
  8.910656289644045
  8.450568771636833
  7.977412171797356
  7.493318188329675
  6.997784934237845
  6.488150051703809
  5.967893867602967
  5.441299722022133
  4.90548754887419
  4.3672593360519905
  3.8225044244055257
  3.277207386273446
  2.725924477196435
  9.58161328828713
  9.108105311360164
  8.622377758163935
  8.116438786306782
  7.600401277096991
  7.070223246830062
  6.529110724301527
  5.979306455505232
  5.4189116715313705
  4.854002533596496
  4.281813016806677
  3.7049341521354506
  3.1247471016237514
  10.15013699091176
  9.662263818408762
  9.158605006892227
  8.639038999357723
  8.105784794497866
  7.5611731909536655
  7.001433199490169
  6.432149410540639
  5.85272904987099
  5.263196326290679
  4.668120735359809
  4.065167762803374
  3.4589234756510323
  10.625181325676953
  10.127136739610785
  9.611532383045864
  9.078378935906404
  8.532179416529564
  7.977515453355003
  7.399590223194935
  6.8127140225805265
  6.217058145913015
  5.611110538293175
  4.99470936735663
  4.371466532849869
  3.741819250219058
  11.020593512999469
  10.512449752869587
  9.987785899419885
  9.447067742801948
  8.890742705011284
  8.32237386210732
  7.737242873746681
  7.13810194290857
  6.5266446330282255
  5.905773107164124
  5.2729418765573595
  4.630960616829118
  3.9810243625789683
  11.341238607640129
  10.830013624367606
  10.29789964232044
  9.753559814444035
  9.19120913677139
  8.613081478287173
  8.010590058439776
  7.410112853551631
  6.787718338233335
  6.155697476982411
  5.510604073619258
  4.854121928073013
  4.189719636903971
  11.599317964517185
  11.083859747264837
  10.550775982030757
  10.00056501378793
  9.436353119170597
  8.844379526022303
  8.244403358599827
  7.637998455136747
  7.006768639838012
  6.368656343060371
  5.711365713072876
  5.044138283780559
  4.367875061377128
  11.80139916642775
  11.28588327972812
  10.752808032613473
  10.201331889177181
  9.63274858519888
  9.040517486064436
  8.43763694482723
  7.829247682169788
  7.1928247781015635
  6.547325698194648
  5.8820455644070595
  5.207311267279001
  4.518915023724879
  11.954895967804646
  11.442166496777933
  10.91029213247941
  10.36036866478657
  9.79321529409981
  9.199271761057362
  8.595000911975927